mtd/3phase_linearization/4Bus_sets/4Bus-OYOD-UnBal/ieee4OYOD-ubal_Curr_Seq.Txt

SYMMETRICAL COMPONENT CURRENTS BY CIRCUIT ELEMENT (first 3 phases)

Element                           Term      I1         I2         %I2/I1    I0         %I0/I1   %Normal %Emergency

"VSOURCE.SOURCE" ................   1      228.33       38.722    16.96       266.7   116.81      0.00     0.00
   -                                2      228.33       38.722    16.96       266.7   116.81      0.00     0.00
"LINE.L1" .......................   1      228.33       38.722    16.96       266.7   116.81    110.08    73.38
   -                                2      228.34        38.72    16.96       266.7   116.80      0.00     0.00
"LINE.L2" .......................   1      684.51       116.08    16.96  7.6791E-013     0.00    190.52   127.01
   -                                2      684.51       116.07    16.96  8.3555E-013     0.00      0.00     0.00
"TRANSFORMER.SD_UNBAL_OY_OD_XFMA"   1      424.78            0     0.00           0     0.00    139.02   101.95
   -                                2      735.19            0     0.00           0     0.00      0.00     0.00
"TRANSFORMER.SD_UNBAL_OY_OD_XFMB"   1      440.31            0     0.00           0     0.00    144.10   105.67
   -                                2      762.07            0     0.00           0     0.00      0.00     0.00
"LOAD.SD_UNBAL_D_GY_LOAD1" ......   1      302.43            0     0.00           0     0.00      0.00     0.00
"LOAD.SD_UNBAL_D_GY_LOAD2" ......   1      341.33            0     0.00           0     0.00      0.00     0.00
"LOAD.SD_UNBAL_D_GY_LOAD3" ......   1      542.38            0     0.00           0     0.00      0.00     0.00
