mtd/3phase_linearization/4Bus_sets/4Bus-OYOD-UnBal/ieee4OYOD-ubal_VLN_Node.Txt

LINE-GROUND and LINE-LINE VOLTAGES BY BUS & NODE

Bus              Node    VLN (kV)   Angle      pu     Base kV    Node-Node   VLL (kV)  Angle      pu

SOURCEBUS ...... 1       7.1995 /_    0.0   0.99999    12.470        1-2      12.47 /_   30.0         1
   -             2       7.1995 /_ -120.0         1    12.470        2-3      12.47 /_  -90.0         1
   -             3       7.1996 /_  120.0         1    12.470        3-1      12.47 /_  150.0         1
SD_UNBAL_OY_OD_2 1       6.9518 /_    0.7   0.96559    12.470        1-2     12.395 /_   29.8   0.99398
   -             2       7.1715 /_ -122.0    0.9961    12.470        2-3      12.38 /_  -90.4   0.99279
   -             3       7.3127 /_  120.5    1.0157    12.470        3-1     12.344 /_  149.8   0.98994
SD_UNBAL_OY_OD_3 1       1.9407 /_  -37.9   0.80804     4.160        1-2      3.632 /_    0.1   0.87308
   -             2        2.416 /_ -150.4    1.0059     4.160        2-3     4.1211 /_ -127.6   0.99064
   -             3       2.1124 /_   78.7   0.87953     4.160        3-1     3.4497 /_  108.9   0.82926
SD_UNBAL_OY_OD_4 1       1.6983 /_  -41.3   0.70711     4.160        1-2     3.3065 /_   -1.5   0.79483
   -             2       2.2796 /_ -152.9   0.94914     4.160        2-3     3.9062 /_ -131.9     0.939
   -             3       1.9582 /_   72.8   0.81532     4.160        3-1     3.0727 /_  103.1   0.73862
